dss/import/1-Enero/Archivos_DSS/Conexiones_ET.txt
New Line.Conexion_ET_Bus_1545 bus1=BusET bus2=1545 length=1 units=m r1=0.000275299 r0=0.000420731 x1=0.000297103 x0=0.00169017 c1=0.0125692 c0=0.00375209 enabled=True phases=3
New Line.Conexion_ET_Bus_1569 bus1=BusET bus2=1569 length=1 units=m r1=0.000275299 r0=0.000420731 x1=0.000297103 x0=0.00169017 c1=0.0125692 c0=0.00375209 enabled=True phases=3
New Line.Conexion_ET_Bus_117 bus1=BusET bus2=117 length=1 units=m r1=0.000275299 r0=0.000420731 x1=0.000297103 x0=0.00169017 c1=0.0125692 c0=0.00375209 enabled=True phases=3
New Line.Conexion_ET_Bus_128 bus1=BusET bus2=128 length=1 units=m r1=0.000275299 r0=0.000420731 x1=0.000297103 x0=0.00169017 c1=0.0125692 c0=0.00375209 enabled=True phases=3
New Line.Conexion_ET_Bus_1543 bus1=BusET bus2=1543 length=1 units=m r1=0.000275299 r0=0.000420731 x1=0.000297103 x0=0.00169017 c1=0.0125692 c0=0.00375209 enabled=True phases=3
