dss/import/1-Enero/Archivos_DSS/Red_MT.txt
New Line.IDLinea16_IDTramos_9 bus1=Ab1_5 bus2=1002 length=244.205 units=m r1=0.00048417 r0=0.000629602 x1=0.000315326 x0=0.0017084 c1=0.0117887 c0=0.00367967 enabled=True phases=3
New Line.IDLinea17_IDTramos_10 bus1=1003 bus2=Ab2_5 length=20.714 units=m r1=0.00048417 r0=0.000629602 x1=0.000315326 x0=0.0017084 c1=0.0117887 c0=0.00367967 enabled=True phases=3
New Line.IDLinea107_IDTramos_62 bus1=Ab1_207 bus2=51 length=70.505 units=m r1=0.000663124 r0=0.000808557 x1=0.000325502 x0=0.00171857 c1=0.0113939 c0=0.00364045 enabled=True phases=3
New Line.IDLinea248_IDTramos_252 bus1=208 bus2=Ab2_207 length=166.564 units=m r1=0.000952086 r0=0.00109752 x1=0.00033682 x0=0.00172989 c1=0.0109851 c0=0.00359782 enabled=True phases=3
New Line.IDLinea144_IDTramos_121 bus1=Ab1_163 bus2=113 length=30.922 units=m r1=0.00048417 r0=0.000629602 x1=0.000315326 x0=0.0017084 c1=0.0117887 c0=0.00367967 enabled=True phases=3
New Line.IDLinea37_IDTramos_188 bus1=1028 bus2=Ab2_163 length=101.887 units=m r1=0.00048417 r0=0.000629602 x1=0.000315326 x0=0.0017084 c1=0.0117887 c0=0.00367967 enabled=True phases=3
New Line.IDLinea167_IDTramos_381 bus1=1195 bus2=Ab2_344 length=19.284 units=m r1=0.00131006 r0=0.0014555 x1=0.000346644 x0=0.00173971 c1=0.0106534 c0=0.00356164 enabled=True phases=3
New Line.IDLinea831_IDTramos_1517 bus1=Ab1_344 bus2=1556 length=80.833 units=m r1=0.000952086 r0=0.00109752 x1=0.00033682 x0=0.00172989 c1=0.0109851 c0=0.00359782 enabled=True phases=3
New Line.IDLinea133_IDTramos_107 bus1=Ab1_1058 bus2=98 length=99.141 units=m r1=0.00048417 r0=0.000629602 x1=0.000315326 x0=0.0017084 c1=0.0117887 c0=0.00367967 enabled=True phases=3
New Line.IDLinea137_IDTramos_112 bus1=Ab1_1157 bus2=1322 length=320.936 units=m r1=0.000663124 r0=0.000808557 x1=0.000325502 x0=0.00171857 c1=0.0113939 c0=0.00364045 enabled=True phases=3
New Line.IDLinea185_IDTramos_140 bus1=Ab1_125 bus2=1120 length=196.542 units=m r1=0.000663124 r0=0.000808557 x1=0.000325502 x0=0.00171857 c1=0.0113939 c0=0.00364045 enabled=True phases=3
New Line.IDLinea203_IDTramos_165 bus1=Ab1_141 bus2=142 length=173.952 units=m r1=0.000352234 r0=0.000497666 x1=0.000305055 x0=0.00169813 c1=0.0122161 c0=0.00372013 enabled=True phases=3
New Line.IDLinea162_IDTramos_171 bus1=Ab1_1207 bus2=150 length=362.756 units=m r1=0.000952086 r0=0.00109752 x1=0.00033682 x0=0.00172989 c1=0.0109851 c0=0.00359782 enabled=True phases=3
New Line.IDLinea237_IDTramos_238 bus1=Ab1_1198 bus2=199 length=23.471 units=m r1=0.000663124 r0=0.000808557 x1=0.000325502 x0=0.00171857 c1=0.0113939 c0=0.00364045 enabled=True phases=3
New Line.IDLinea361_IDTramos_474 bus1=Ab1_424 bus2=425 length=421.664 units=m r1=0.00048417 r0=0.000629602 x1=0.000315326 x0=0.0017084 c1=0.0117887 c0=0.00367967 enabled=True phases=3
New Line.IDLinea402_IDTramos_525 bus1=Ab1_474 bus2=1324 length=30.266 units=m r1=0.000663124 r0=0.000808557 x1=0.000325502 x0=0.00171857 c1=0.0113939 c0=0.00364045 enabled=True phases=3
New Line.IDLinea482_IDTramos_824 bus1=Ab1_778 bus2=779 length=578.247 units=m r1=0.00048417 r0=0.000629602 x1=0.000315326 x0=0.0017084 c1=0.0117887 c0=0.00367967 enabled=True phases=3
New Line.IDLinea491_IDTramos_839 bus1=Ab1_793 bus2=794 length=537.949 units=m r1=0.000952086 r0=0.00109752 x1=0.00033682 x0=0.00172989 c1=0.0109851 c0=0.00359782 enabled=True phases=3
New Line.IDLinea507_IDTramos_856 bus1=Ab1_816 bus2=818 length=18.5 units=m r1=0.000663124 r0=0.000808557 x1=0.000325502 x0=0.00171857 c1=0.0113939 c0=0.00364045 enabled=True phases=3
New Line.IDLinea555_IDTramos_916 bus1=Ab1_892 bus2=893 length=34.57 units=m r1=0.00048417 r0=0.000629602 x1=0.000315326 x0=0.0017084 c1=0.0117887 c0=0.00367967 enabled=True phases=3
New Line.IDLinea566_IDTramos_935 bus1=Ab1_917 bus2=918 length=24.094 units=m r1=0.000663124 r0=0.000808557 x1=0.000325502 x0=0.00171857 c1=0.0113939 c0=0.00364045 enabled=True phases=3
New Line.IDLinea594_IDTramos_985 bus1=Ab1_974 bus2=975 length=122.015 units=m r1=0.00048417 r0=0.000629602 x1=0.000315326 x0=0.0017084 c1=0.0117887 c0=0.00367967 enabled=True phases=3
New Line.IDLinea688_IDTramos_1089 bus1=Ab1_1099 bus2=1102 length=35.432 units=m r1=0.000952086 r0=0.00109752 x1=0.00033682 x0=0.00172989 c1=0.0109851 c0=0.00359782 enabled=True phases=3
New Line.IDLinea739_IDTramos_1146 bus1=Ab1_1178 bus2=1179 length=62.183 units=m r1=0.00048417 r0=0.000629602 x1=0.000315326 x0=0.0017084 c1=0.0117887 c0=0.00367967 enabled=True phases=3
New Line.IDLinea768_IDTramos_1178 bus1=Ab1_1226 bus2=1227 length=50.941 units=m r1=0.000952086 r0=0.00109752 x1=0.00033682 x0=0.00172989 c1=0.0109851 c0=0.00359782 enabled=True phases=3
New Line.IDLinea783_IDTramos_1194 bus1=Ab1_1246 bus2=1247 length=47.073 units=m r1=0.000952086 r0=0.00109752 x1=0.00033682 x0=0.00172989 c1=0.0109851 c0=0.00359782 enabled=True phases=3
New Line.IDLinea803_IDTramos_1219 bus1=Ab1_1279 bus2=1280 length=8.77 units=m r1=0.000952086 r0=0.00109752 x1=0.00033682 x0=0.00172989 c1=0.0109851 c0=0.00359782 enabled=True phases=3
New Line.IDLinea809_IDTramos_1224 bus1=Ab1_1288 bus2=1289 length=17.07 units=m r1=0.00048417 r0=0.000629602 x1=0.000315326 x0=0.0017084 c1=0.0117887 c0=0.00367967 enabled=True phases=3
New Line.IDLinea851_IDTramos_1250 bus1=Ab1_1326 bus2=1327 length=93.432 units=m r1=0.00048417 r0=0.000629602 x1=0.000364866 x0=0.00160931 c1=0.0100937 c0=0.00410549 enabled=True phases=3
New Line.IDLinea908_IDTramos_1448 bus1=Ab1_114 bus2=1506 length=207.223 units=m r1=0.000952086 r0=0.00109752 x1=0.00033682 x0=0.00172989 c1=0.0109851 c0=0.00359782 enabled=True phases=3
New Line.IDLinea821_IDTramos_1508 bus1=Ab1_1303 bus2=1549 length=13.407 units=m r1=0.000663124 r0=0.000808557 x1=0.000325502 x0=0.00171857 c1=0.0113939 c0=0.00364045 enabled=True phases=3
New Line.IDLinea225_IDTramos_1588 bus1=Ab1_968 bus2=1237 length=220.731 units=m r1=0.000352234 r0=0.000497666 x1=0.000305055 x0=0.00169813 c1=0.0122161 c0=0.00372013 enabled=True phases=3
New Line.IDLinea892_IDTramos_1594 bus1=Ab1_1086 bus2=1156 length=6.102 units=m r1=0.000952086 r0=0.00109752 x1=0.00033682 x0=0.00172989 c1=0.0109851 c0=0.00359782 enabled=True phases=3
New Line.IDLinea897_IDTramos_1598 bus1=Ab1_356 bus2=131 length=7.24 units=m r1=0.000352234 r0=0.000497666 x1=0.000305055 x0=0.00169813 c1=0.0122161 c0=0.00372013 enabled=True phases=3
New Line.IDLinea987_IDTramos_1708 bus1=Ab1_1719 bus2=1262 length=125.247 units=m r1=0.000952086 r0=0.00109752 x1=0.00033682 x0=0.00172989 c1=0.0109851 c0=0.00359782 enabled=True phases=3
New Line.IDLinea1004_IDTramos_1727 bus1=Ab1_1730 bus2=1731 length=259.362 units=m r1=0.00048417 r0=0.000629602 x1=0.000315326 x0=0.0017084 c1=0.0117887 c0=0.00367967 enabled=True phases=3
New Line.IDLinea1025_IDTramos_1782 bus1=Ab1_1746 bus2=1767 length=589.903 units=m r1=0.00048417 r0=0.000629602 x1=0.000315326 x0=0.0017084 c1=0.0117887 c0=0.00367967 enabled=True phases=3
New Line.IDLinea1072_IDTramos_1810 bus1=Ab1_1574 bus2=1791 length=332.952 units=m r1=0.00048417 r0=0.000629602 x1=0.000315326 x0=0.0017084 c1=0.0117887 c0=0.00367967 enabled=True phases=3
New Line.IDLinea15_IDTramos_43 bus1=789 bus2=Ab2_793 length=51.137 units=m r1=0.000952086 r0=0.00109752 x1=0.00033682 x0=0.00172989 c1=0.0109851 c0=0.00359782 enabled=True phases=3
New Line.IDLinea145_IDTramos_122 bus1=1145 bus2=Ab2_114 length=40.575 units=m r1=0.000952086 r0=0.00109752 x1=0.00033682 x0=0.00172989 c1=0.0109851 c0=0.00359782 enabled=True phases=3
New Line.IDLinea152_IDTramos_130 bus1=1165 bus2=Ab2_141 length=11.284 units=m r1=0.000952086 r0=0.00109752 x1=0.00033682 x0=0.00172989 c1=0.0109851 c0=0.00359782 enabled=True phases=3
New Line.IDLinea154_IDTramos_132 bus1=1066 bus2=Ab2_122 length=5.281 units=m r1=0.000275299 r0=0.000420731 x1=0.000297103 x0=0.00169017 c1=0.0125692 c0=0.00375209 enabled=True phases=3
New Line.IDLinea159_IDTramos_135 bus1=1174 bus2=Ab2_1178 length=35.059 units=m r1=0.00048417 r0=0.000629602 x1=0.000315326 x0=0.0017084 c1=0.0117887 c0=0.00367967 enabled=True phases=3
New Line.IDLinea201_IDTramos_157 bus1=1217 bus2=Ab2_1226 length=35.278 units=m r1=0.000952086 r0=0.00109752 x1=0.00033682 x0=0.00172989 c1=0.0109851 c0=0.00359782 enabled=True phases=3
New Line.IDLinea72_IDTramos_195 bus1=972 bus2=Ab2_974 length=58.383 units=m r1=0.00048417 r0=0.000629602 x1=0.000315326 x0=0.0017084 c1=0.0117887 c0=0.00367967 enabled=True phases=3
New Line.IDLinea204_IDTramos_208 bus1=174 bus2=Ab2_1246 length=66.908 units=m r1=0.000952086 r0=0.00109752 x1=0.00033682 x0=0.00172989 c1=0.0109851 c0=0.00359782 enabled=True phases=3
New Line.IDLinea247_IDTramos_248 bus1=1278 bus2=Ab2_1279 length=9.551 units=m r1=0.000952086 r0=0.00109752 x1=0.00033682 x0=0.00172989 c1=0.0109851 c0=0.00359782 enabled=True phases=3
New Line.IDLinea272_IDTramos_344 bus1=BusMT_620 bus2=Ab2_1326 length=13.054 units=m r1=0.00048417 r0=0.000629602 x1=0.000364866 x0=0.00160931 c1=0.0100937 c0=0.00410549 enabled=True phases=3
New Line.IDLinea290_IDTramos_397 bus1=1138 bus2=Ab2_356 length=5.009 units=m r1=0.000352234 r0=0.000497666 x1=0.000305055 x0=0.00169813 c1=0.0122161 c0=0.00372013 enabled=True phases=3
New Line.IDLinea336_IDTramos_466 bus1=506 bus2=Ab2_125 length=22.93 units=m r1=0.00048417 r0=0.000629602 x1=0.000315326 x0=0.0017084 c1=0.0117887 c0=0.00367967 enabled=True phases=3
New Line.IDLinea360_IDTramos_473 bus1=214 bus2=Ab2_424 length=16.224 units=m r1=0.00048417 r0=0.000629602 x1=0.000315326 x0=0.0017084 c1=0.0117887 c0=0.00367967 enabled=True phases=3
New Line.IDLinea401_IDTramos_524 bus1=473 bus2=Ab2_474 length=759.432 units=m r1=0.000663124 r0=0.000808557 x1=0.000325502 x0=0.00171857 c1=0.0113939 c0=0.00364045 enabled=True phases=3
New Line.IDLinea485_IDTramos_828 bus1=783 bus2=Ab2_778 length=39.487 units=m r1=0.00048417 r0=0.000629602 x1=0.000315326 x0=0.0017084 c1=0.0117887 c0=0.00367967 enabled=True phases=3
New Line.IDLinea505_IDTramos_854 bus1=809 bus2=Ab2_816 length=3.808 units=m r1=0.000663124 r0=0.000808557 x1=0.000325502 x0=0.00171857 c1=0.0113939 c0=0.00364045 enabled=True phases=3
New Line.IDLinea565_IDTramos_934 bus1=916 bus2=Ab2_917 length=572.51 units=m r1=0.000663124 r0=0.000808557 x1=0.000325502 x0=0.00171857 c1=0.0113939 c0=0.00364045 enabled=True phases=3
New Line.IDLinea589_IDTramos_980 bus1=970 bus2=Ab2_968 length=71.588 units=m r1=0.000352234 r0=0.000497666 x1=0.000305055 x0=0.00169813 c1=0.0122161 c0=0.00372013 enabled=True phases=3
New Line.IDLinea660_IDTramos_1056 bus1=1057 bus2=Ab2_1058 length=303.999 units=m r1=0.00048417 r0=0.000629602 x1=0.000315326 x0=0.0017084 c1=0.0117887 c0=0.00367967 enabled=True phases=3
New Line.IDLinea678_IDTramos_1078 bus1=1085 bus2=Ab2_1086 length=5.39 units=m r1=0.000952086 r0=0.00109752 x1=0.00033682 x0=0.00172989 c1=0.0109851 c0=0.00359782 enabled=True phases=3
New Line.IDLinea687_IDTramos_1088 bus1=1098 bus2=Ab2_1099 length=231.027 units=m r1=0.000952086 r0=0.00109752 x1=0.00033682 x0=0.00172989 c1=0.0109851 c0=0.00359782 enabled=True phases=3
New Line.IDLinea716_IDTramos_1124 bus1=1147 bus2=Ab2_1148 length=3.225 units=m r1=0.000275299 r0=0.000420731 x1=0.000297103 x0=0.00169017 c1=0.0125692 c0=0.00375209 enabled=True phases=3
New Line.IDLinea722_IDTramos_1131 bus1=1156 bus2=Ab2_1157 length=117.111 units=m r1=0.000663124 r0=0.000808557 x1=0.000325502 x0=0.00171857 c1=0.0113939 c0=0.00364045 enabled=True phases=3
New Line.IDLinea751_IDTramos_1158 bus1=1195 bus2=Ab2_1198 length=275.066 units=m r1=0.00131006 r0=0.0014555 x1=0.000346644 x0=0.00173971 c1=0.0106534 c0=0.00356164 enabled=True phases=3
New Line.IDLinea755_IDTramos_1164 bus1=1206 bus2=Ab2_1207 length=42.178 units=m r1=0.000952086 r0=0.00109752 x1=0.00033682 x0=0.00172989 c1=0.0109851 c0=0.00359782 enabled=True phases=3
New Line.IDLinea819_IDTramos_1236 bus1=1301 bus2=Ab2_1302 length=17.973 units=m r1=0.000663124 r0=0.000808557 x1=0.000325502 x0=0.00171857 c1=0.0113939 c0=0.00364045 enabled=True phases=3
New Line.IDLinea84_IDTramos_1540 bus1=891 bus2=Ab2_892 length=55.745 units=m r1=0.00048417 r0=0.000629602 x1=0.000315326 x0=0.0017084 c1=0.0117887 c0=0.00367967 enabled=True phases=3
New Line.IDLinea87_IDTramos_1542 bus1=1037 bus2=Ab2_1574 length=18.207 units=m r1=0.00048417 r0=0.000629602 x1=0.000315326 x0=0.0017084 c1=0.0117887 c0=0.00367967 enabled=True phases=3
New Line.IDLinea975_IDTramos_1702 bus1=1712 bus2=Ab2_1288 length=140.048 units=m r1=0.00048417 r0=0.000629602 x1=0.000315326 x0=0.0017084 c1=0.0117887 c0=0.00367967 enabled=True phases=3
New Line.IDLinea986_IDTramos_1707 bus1=1718 bus2=Ab2_1719 length=37.272 units=m r1=0.000952086 r0=0.00109752 x1=0.00033682 x0=0.00172989 c1=0.0109851 c0=0.00359782 enabled=True phases=3
New Line.IDLinea1003_IDTramos_1726 bus1=1024 bus2=Ab2_1730 length=24.292 units=m r1=0.00048417 r0=0.000629602 x1=0.000315326 x0=0.0017084 c1=0.0117887 c0=0.00367967 enabled=True phases=3
New Line.IDLinea1026_IDTramos_1746 bus1=97 bus2=Ab2_1746 length=26.492 units=m r1=0.00048417 r0=0.000629602 x1=0.000315326 x0=0.0017084 c1=0.0117887 c0=0.00367967 enabled=True phases=3
New Line.IDLinea1_IDTramos_1 bus1=1 bus2=2 length=517.363 units=m r1=0.00048417 r0=0.000629602 x1=0.000315326 x0=0.0017084 c1=0.0117887 c0=0.00367967 enabled=True phases=3
New Line.IDLinea2_IDTramos_2 bus1=2 bus2=1000 length=307.326 units=m r1=0.00048417 r0=0.000629602 x1=0.000315326 x0=0.0017084 c1=0.0117887 c0=0.00367967 enabled=True phases=3
New Line.IDLinea3_IDTramos_3 bus1=1017 bus2=1018 length=43.514 units=m r1=0.000952086 r0=0.00109752 x1=0.00033682 x0=0.00172989 c1=0.0109851 c0=0.00359782 enabled=True phases=3
New Line.IDLinea4_IDTramos_4 bus1=988 bus2=990 length=9.729 units=m r1=0.000952086 r0=0.00109752 x1=0.00033682 x0=0.00172989 c1=0.0109851 c0=0.00359782 enabled=True phases=3
New Line.IDLinea5_IDTramos_5 bus1=992 bus2=3 length=64.12 units=m r1=0.000952086 r0=0.00109752 x1=0.00033682 x0=0.00172989 c1=0.0109851 c0=0.00359782 enabled=True phases=3
New Line.IDLinea6_IDTramos_6 bus1=998 bus2=4 length=31.756 units=m r1=0.000952086 r0=0.00109752 x1=0.00033682 x0=0.00172989 c1=0.0109851 c0=0.00359782 enabled=True phases=3
New Line.IDLinea7_IDTramos_7 bus1=1000 bus2=999 length=621.297 units=m r1=0.00048417 r0=0.000629602 x1=0.000315326 x0=0.0017084 c1=0.0117887 c0=0.00367967 enabled=True phases=3
New Line.IDLinea8_IDTramos_8 bus1=978 bus2=980 length=47.359 units=m r1=0.000663124 r0=0.000808557 x1=0.000325502 x0=0.00171857 c1=0.0113939 c0=0.00364045 enabled=True phases=3
New Line.IDLinea18_IDTramos_11 bus1=777 bus2=774 length=28.91 units=m r1=0.00048417 r0=0.000629602 x1=0.000315326 x0=0.0017084 c1=0.0117887 c0=0.00367967 enabled=True phases=3
New Line.IDLinea28_IDTramos_12 bus1=1054 bus2=1060 length=41.74 units=m r1=0.000952086 r0=0.00109752 x1=0.00033682 x0=0.00172989 c1=0.0109851 c0=0.00359782 enabled=True phases=3
New Line.IDLinea35_IDTramos_13 bus1=1015 bus2=1014 length=25.325 units=m r1=0.000952086 r0=0.00109752 x1=0.00033682 x0=0.00172989 c1=0.0109851 c0=0.00359782 enabled=True phases=3
New Line.IDLinea39_IDTramos_14 bus1=8 bus2=6 length=14.565 units=m r1=0.000663124 r0=0.000808557 x1=0.000325502 x0=0.00171857 c1=0.0113939 c0=0.00364045 enabled=True phases=3
New Line.IDLinea39_IDTramos_15 bus1=6 bus2=7 length=14.521 units=m r1=0.000663124 r0=0.000808557 x1=0.000325502 x0=0.00171857 c1=0.0113939 c0=0.00364045 enabled=True phases=3
New Line.IDLinea41_IDTramos_16 bus1=8 bus2=9 length=484.806 units=m r1=0.000663124 r0=0.000808557 x1=0.000325502 x0=0.00171857 c1=0.0113939 c0=0.00364045 enabled=True phases=3
New Line.IDLinea42_IDTramos_17 bus1=875 bus2=878 length=21.831 units=m r1=0.000952086 r0=0.00109752 x1=0.00033682 x0=0.00172989 c1=0.0109851 c0=0.00359782 enabled=True phases=3
New Line.IDLinea54_IDTramos_18 bus1=913 bus2=914 length=17.451 units=m r1=0.00048417 r0=0.000629602 x1=0.000315326 x0=0.0017084 c1=0.0117887 c0=0.00367967 enabled=True phases=3
New Line.IDLinea55_IDTramos_19 bus1=897 bus2=909 length=113.01 units=m r1=0.000663124 r0=0.000808557 x1=0.000325502 x0=0.00171857 c1=0.0113939 c0=0.00364045 enabled=True phases=3
New Line.IDLinea38_IDTramos_20 bus1=10 bus2=11 length=1007.5 units=m r1=0.000663124 r0=0.000808557 x1=0.000325502 x0=0.00171857 c1=0.0113939 c0=0.00364045 enabled=True phases=3
New Line.IDLinea38_IDTramos_21 bus1=11 bus2=12 length=36.421 units=m r1=0.000663124 r0=0.000808557 x1=0.000325502 x0=0.00171857 c1=0.0113939 c0=0.00364045 enabled=True phases=3
New Line.IDLinea38_IDTramos_22 bus1=12 bus2=13 length=74.044 units=m r1=0.000663124 r0=0.000808557 x1=0.000325502 x0=0.00171857 c1=0.0113939 c0=0.00364045 enabled=True phases=3
New Line.IDLinea38_IDTramos_23 bus1=13 bus2=14 length=32.108 units=m r1=0.000663124 r0=0.000808557 x1=0.000325502 x0=0.00171857 c1=0.0113939 c0=0.00364045 enabled=True phases=3
New Line.IDLinea38_IDTramos_24 bus1=14 bus2=15 length=13.867 units=m r1=0.000663124 r0=0.000808557 x1=0.000325502 x0=0.00171857 c1=0.0113939 c0=0.00364045 enabled=True phases=3
New Line.IDLinea38_IDTramos_25 bus1=15 bus2=16 length=12.112 units=m r1=0.000663124 r0=0.000808557 x1=0.000325502 x0=0.00171857 c1=0.0113939 c0=0.00364045 enabled=True phases=3
New Line.IDLinea38_IDTramos_26 bus1=16 bus2=17 length=152.085 units=m r1=0.000663124 r0=0.000808557 x1=0.000325502 x0=0.00171857 c1=0.0113939 c0=0.00364045 enabled=True phases=3
New Line.IDLinea40_IDTramos_27 bus1=902 bus2=907 length=98.152 units=m r1=0.00048417 r0=0.000629602 x1=0.000315326 x0=0.0017084 c1=0.0117887 c0=0.00367967 enabled=True phases=3
New Line.IDLinea56_IDTramos_28 bus1=884 bus2=882 length=394.734 units=m r1=0.000663124 r0=0.000808557 x1=0.000325502 x0=0.00171857 c1=0.0113939 c0=0.00364045 enabled=True phases=3
New Line.IDLinea61_IDTramos_29 bus1=18 bus2=889 length=517.789 units=m r1=0.000952086 r0=0.00109752 x1=0.00033682 x0=0.00172989 c1=0.0109851 c0=0.00359782 enabled=True phases=3
New Line.IDLinea62_IDTramos_30 bus1=897 bus2=912 length=60.185 units=m r1=0.000663124 r0=0.000808557 x1=0.000325502 x0=0.00171857 c1=0.0113939 c0=0.00364045 enabled=True phases=3
New Line.IDLinea9_IDTramos_31 bus1=19 bus2=983 length=340.328 units=m r1=0.000663124 r0=0.000808557 x1=0.000325502 x0=0.00171857 c1=0.0113939 c0=0.00364045 enabled=True phases=3
New Line.IDLinea10_IDTramos_32 bus1=20 bus2=21 length=55.442 units=m r1=0.000952086 r0=0.00109752 x1=0.00033682 x0=0.00172989 c1=0.0109851 c0=0.00359782 enabled=True phases=3
New Line.IDLinea10_IDTramos_33 bus1=21 bus2=22 length=86.575 units=m r1=0.000952086 r0=0.00109752 x1=0.00033682 x0=0.00172989 c1=0.0109851 c0=0.00359782 enabled=True phases=3
New Line.IDLinea10_IDTramos_34 bus1=22 bus2=23 length=366.881 units=m r1=0.000952086 r0=0.00109752 x1=0.00033682 x0=0.00172989 c1=0.0109851 c0=0.00359782 enabled=True phases=3
New Line.IDLinea10_IDTramos_35 bus1=23 bus2=24 length=240.07 units=m r1=0.000952086 r0=0.00109752 x1=0.00033682 x0=0.00172989 c1=0.0109851 c0=0.00359782 enabled=True phases=3
New Line.IDLinea10_IDTramos_36 bus1=24 bus2=25 length=47.772 units=m r1=0.000952086 r0=0.00109752 x1=0.00033682 x0=0.00172989 c1=0.0109851 c0=0.00359782 enabled=True phases=3
New Line.IDLinea10_IDTramos_37 bus1=25 bus2=26 length=43.531 units=m r1=0.000952086 r0=0.00109752 x1=0.00033682 x0=0.00172989 c1=0.0109851 c0=0.00359782 enabled=True phases=3
New Line.IDLinea10_IDTramos_38 bus1=26 bus2=27 length=26.95 units=m r1=0.000952086 r0=0.00109752 x1=0.00033682 x0=0.00172989 c1=0.0109851 c0=0.00359782 enabled=True phases=3
New Line.IDLinea11_IDTramos_39 bus1=782 bus2=781 length=528.272 units=m r1=0.000952086 r0=0.00109752 x1=0.00033682 x0=0.00172989 c1=0.0109851 c0=0.00359782 enabled=True phases=3
New Line.IDLinea12_IDTramos_40 bus1=28 bus2=797 length=53.403 units=m r1=0.00048417 r0=0.000629602 x1=0.000315326 x0=0.0017084 c1=0.0117887 c0=0.00367967 enabled=True phases=3
New Line.IDLinea13_IDTramos_41 bus1=147 bus2=801 length=134.016 units=m r1=0.00048417 r0=0.000629602 x1=0.000315326 x0=0.0017084 c1=0.0117887 c0=0.00367967 enabled=True phases=3
New Line.IDLinea14_IDTramos_42 bus1=786 bus2=787 length=650.112 units=m r1=0.000952086 r0=0.00109752 x1=0.00033682 x0=0.00172989 c1=0.0109851 c0=0.00359782 enabled=True phases=3
New Line.IDLinea19_IDTramos_44 bus1=768 bus2=769 length=7.965 units=m r1=0.000952086 r0=0.00109752 x1=0.00033682 x0=0.00172989 c1=0.0109851 c0=0.00359782 enabled=True phases=3
New Line.IDLinea43_IDTramos_45 bus1=832 bus2=838 length=111.277 units=m r1=0.000952086 r0=0.00109752 x1=0.00033682 x0=0.00172989 c1=0.0109851 c0=0.00359782 enabled=True phases=3
New Line.IDLinea99_IDTramos_46 bus1=29 bus2=30 length=48.256 units=m r1=0.000952086 r0=0.00109752 x1=0.00033682 x0=0.00172989 c1=0.0109851 c0=0.00359782 enabled=True phases=3
New Line.IDLinea20_IDTramos_47 bus1=771 bus2=31 length=296.972 units=m r1=0.00048417 r0=0.000629602 x1=0.000315326 x0=0.0017084 c1=0.0117887 c0=0.00367967 enabled=True phases=3
New Line.IDLinea65_IDTramos_48 bus1=32 bus2=33 length=359.608 units=m r1=0.00048417 r0=0.000629602 x1=0.000315326 x0=0.0017084 c1=0.0117887 c0=0.00367967 enabled=True phases=3
New Line.IDLinea65_IDTramos_49 bus1=33 bus2=34 length=87.421 units=m r1=0.00048417 r0=0.000629602 x1=0.000315326 x0=0.0017084 c1=0.0117887 c0=0.00367967 enabled=True phases=3
New Line.IDLinea66_IDTramos_50 bus1=165 bus2=34 length=272.813 units=m r1=0.00048417 r0=0.000629602 x1=0.000315326 x0=0.0017084 c1=0.0117887 c0=0.00367967 enabled=True phases=3
New Line.IDLinea96_IDTramos_51 bus1=35 bus2=36 length=6.43 units=m r1=0.00048417 r0=0.000629602 x1=0.000315326 x0=0.0017084 c1=0.0117887 c0=0.00367967 enabled=True phases=3
New Line.IDLinea22_IDTramos_52 bus1=1038 bus2=1768 length=6.496 units=m r1=0.000952086 r0=0.00109752 x1=0.00033682 x0=0.00172989 c1=0.0109851 c0=0.00359782 enabled=True phases=3
New Line.IDLinea97_IDTramos_53 bus1=37 bus2=38 length=33.456 units=m r1=0.000952086 r0=0.00109752 x1=0.00033682 x0=0.00172989 c1=0.0109851 c0=0.00359782 enabled=True phases=3
New Line.IDLinea98_IDTramos_54 bus1=39 bus2=40 length=31.231 units=m r1=0.00048417 r0=0.000629602 x1=0.000315326 x0=0.0017084 c1=0.0117887 c0=0.00367967 enabled=True phases=3
New Line.IDLinea100_IDTramos_55 bus1=29 bus2=41 length=42.003 units=m r1=0.000952086 r0=0.00109752 x1=0.00033682 x0=0.00172989 c1=0.0109851 c0=0.00359782 enabled=True phases=3
New Line.IDLinea101_IDTramos_56 bus1=212 bus2=42 length=14.317 units=m r1=0.000952086 r0=0.00109752 x1=0.00033682 x0=0.00172989 c1=0.0109851 c0=0.00359782 enabled=True phases=3
New Line.IDLinea102_IDTramos_57 bus1=43 bus2=44 length=301.571 units=m r1=0.000952086 r0=0.00109752 x1=0.00033682 x0=0.00172989 c1=0.0109851 c0=0.00359782 enabled=True phases=3
New Line.IDLinea103_IDTramos_58 bus1=45 bus2=46 length=236.552 units=m r1=0.000952086 r0=0.00109752 x1=0.00033682 x0=0.00172989 c1=0.0109851 c0=0.00359782 enabled=True phases=3
New Line.IDLinea104_IDTramos_59 bus1=46 bus2=47 length=528.526 units=m r1=0.000952086 r0=0.00109752 x1=0.00033682 x0=0.00172989 c1=0.0109851 c0=0.00359782 enabled=True phases=3
New Line.IDLinea105_IDTramos_60 bus1=48 bus2=49 length=37.297 units=m r1=0.000952086 r0=0.00109752 x1=0.00033682 x0=0.00172989 c1=0.0109851 c0=0.00359782 enabled=True phases=3
New Line.IDLinea106_IDTramos_61 bus1=51 bus2=50 length=29.74 units=m r1=0.000952086 r0=0.00109752 x1=0.00033682 x0=0.00172989 c1=0.0109851 c0=0.00359782 enabled=True phases=3
New Line.IDLinea108_IDTramos_63 bus1=52 bus2=53 length=512.092 units=m r1=0.00048417 r0=0.000629602 x1=0.000315326 x0=0.0017084 c1=0.0117887 c0=0.00367967 enabled=True phases=3
New Line.IDLinea23_IDTramos_64 bus1=1046 bus2=1047 length=5.212 units=m r1=0.000952086 r0=0.00109752 x1=0.00033682 x0=0.00172989 c1=0.0109851 c0=0.00359782 enabled=True phases=3
New Line.IDLinea44_IDTramos_65 bus1=830 bus2=833 length=24.318 units=m r1=0.000952086 r0=0.00109752 x1=0.00033682 x0=0.00172989 c1=0.0109851 c0=0.00359782 enabled=True phases=3
New Line.IDLinea45_IDTramos_66 bus1=54 bus2=854 length=51.729 units=m r1=0.000663124 r0=0.000808557 x1=0.000325502 x0=0.00171857 c1=0.0113939 c0=0.00364045 enabled=True phases=3
New Line.IDLinea109_IDTramos_67 bus1=143 bus2=55 length=40.945 units=m r1=0.00048417 r0=0.000629602 x1=0.000315326 x0=0.0017084 c1=0.0117887 c0=0.00367967 enabled=True phases=3
New Line.IDLinea110_IDTramos_68 bus1=56 bus2=57 length=24.85 units=m r1=0.000952086 r0=0.00109752 x1=0.00033682 x0=0.00172989 c1=0.0109851 c0=0.00359782 enabled=True phases=3
New Line.IDLinea46_IDTramos_69 bus1=54 bus2=58 length=48.055 units=m r1=0.00048417 r0=0.000629602 x1=0.000315326 x0=0.0017084 c1=0.0117887 c0=0.00367967 enabled=True phases=3
New Line.IDLinea46_IDTramos_70 bus1=58 bus2=59 length=21.476 units=m r1=0.00048417 r0=0.000629602 x1=0.000315326 x0=0.0017084 c1=0.0117887 c0=0.00367967 enabled=True phases=3
New Line.IDLinea46_IDTramos_71 bus1=59 bus2=60 length=45.682 units=m r1=0.00048417 r0=0.000629602 x1=0.000315326 x0=0.0017084 c1=0.0117887 c0=0.00367967 enabled=True phases=3
New Line.IDLinea46_IDTramos_72 bus1=60 bus2=61 length=86.441 units=m r1=0.00048417 r0=0.000629602 x1=0.000315326 x0=0.0017084 c1=0.0117887 c0=0.00367967 enabled=True phases=3
New Line.IDLinea46_IDTramos_73 bus1=61 bus2=62 length=173.174 units=m r1=0.00048417 r0=0.000629602 x1=0.000315326 x0=0.0017084 c1=0.0117887 c0=0.00367967 enabled=True phases=3
New Line.IDLinea46_IDTramos_74 bus1=62 bus2=63 length=304.813 units=m r1=0.00048417 r0=0.000629602 x1=0.000315326 x0=0.0017084 c1=0.0117887 c0=0.00367967 enabled=True phases=3
New Line.IDLinea46_IDTramos_75 bus1=63 bus2=64 length=705.193 units=m r1=0.00048417 r0=0.000629602 x1=0.000315326 x0=0.0017084 c1=0.0117887 c0=0.00367967 enabled=True phases=3
New Line.IDLinea47_IDTramos_76 bus1=829 bus2=65 length=55.532 units=m r1=0.000952086 r0=0.00109752 x1=0.00033682 x0=0.00172989 c1=0.0109851 c0=0.00359782 enabled=True phases=3
New Line.IDLinea47_IDTramos_77 bus1=65 bus2=66 length=261.857 units=m r1=0.000952086 r0=0.00109752 x1=0.00033682 x0=0.00172989 c1=0.0109851 c0=0.00359782 enabled=True phases=3
New Line.IDLinea48_IDTramos_78 bus1=67 bus2=863 length=54.196 units=m r1=0.000663124 r0=0.000808557 x1=0.000325502 x0=0.00171857 c1=0.0113939 c0=0.00364045 enabled=True phases=3
New Line.IDLinea49_IDTramos_79 bus1=67 bus2=865 length=29.2 units=m r1=0.000952086 r0=0.00109752 x1=0.00033682 x0=0.00172989 c1=0.0109851 c0=0.00359782 enabled=True phases=3
New Line.IDLinea50_IDTramos_80 bus1=878 bus2=879 length=21.996 units=m r1=0.000663124 r0=0.000808557 x1=0.000325502 x0=0.00171857 c1=0.0113939 c0=0.00364045 enabled=True phases=3
New Line.IDLinea51_IDTramos_81 bus1=68 bus2=896 length=328.627 units=m r1=0.000952086 r0=0.00109752 x1=0.00033682 x0=0.00172989 c1=0.0109851 c0=0.00359782 enabled=True phases=3
New Line.IDLinea52_IDTramos_82 bus1=1772 bus2=69 length=362.378 units=m r1=0.000663124 r0=0.000808557 x1=0.000325502 x0=0.00171857 c1=0.0113939 c0=0.00364045 enabled=True phases=3
New Line.IDLinea53_IDTramos_83 bus1=1772 bus2=70 length=57.043 units=m r1=0.000663124 r0=0.000808557 x1=0.000325502 x0=0.00171857 c1=0.0113939 c0=0.00364045 enabled=True phases=3
New Line.IDLinea111_IDTramos_84 bus1=71 bus2=72 length=59.324 units=m r1=0.000952086 r0=0.00109752 x1=0.00033682 x0=0.00172989 c1=0.0109851 c0=0.00359782 enabled=True phases=3
New Line.IDLinea112_IDTramos_85 bus1=73 bus2=74 length=48.968 units=m r1=0.000952086 r0=0.00109752 x1=0.00033682 x0=0.00172989 c1=0.0109851 c0=0.00359782 enabled=True phases=3
New Line.IDLinea114_IDTramos_86 bus1=75 bus2=76 length=26.024 units=m r1=0.000952086 r0=0.00109752 x1=0.00033682 x0=0.00172989 c1=0.0109851 c0=0.00359782 enabled=True phases=3
New Line.IDLinea122_IDTramos_87 bus1=77 bus2=78 length=31.224 units=m r1=0.000952086 r0=0.00109752 x1=0.00033682 x0=0.00172989 c1=0.0109851 c0=0.00359782 enabled=True phases=3
New Line.IDLinea57_IDTramos_88 bus1=80 bus2=898 length=870.915 units=m r1=0.00131006 r0=0.0014555 x1=0.000346644 x0=0.00173971 c1=0.0106534 c0=0.00356164 enabled=True phases=3
New Line.IDLinea24_IDTramos_89 bus1=1029 bus2=79 length=186.25 units=m r1=0.000663124 r0=0.000808557 x1=0.000325502 x0=0.00171857 c1=0.0113939 c0=0.00364045 enabled=True phases=3
New Line.IDLinea58_IDTramos_90 bus1=80 bus2=844 length=658.953 units=m r1=0.000663124 r0=0.000808557 x1=0.000325502 x0=0.00171857 c1=0.0113939 c0=0.00364045 enabled=True phases=3
New Line.IDLinea59_IDTramos_91 bus1=897 bus2=81 length=11.123 units=m r1=0.000663124 r0=0.000808557 x1=0.000325502 x0=0.00171857 c1=0.0113939 c0=0.00364045 enabled=True phases=3
New Line.IDLinea59_IDTramos_92 bus1=81 bus2=82 length=30.397 units=m r1=0.000663124 r0=0.000808557 x1=0.000325502 x0=0.00171857 c1=0.0113939 c0=0.00364045 enabled=True phases=3
New Line.IDLinea59_IDTramos_93 bus1=82 bus2=895 length=726.186 units=m r1=0.000663124 r0=0.000808557 x1=0.000325502 x0=0.00171857 c1=0.0113939 c0=0.00364045 enabled=True phases=3
New Line.IDLinea124_IDTramos_94 bus1=83 bus2=1776 length=152.651 units=m r1=0.000663124 r0=0.000808557 x1=0.000325502 x0=0.00171857 c1=0.0113939 c0=0.00364045 enabled=True phases=3
New Line.IDLinea125_IDTramos_95 bus1=84 bus2=85 length=9.286 units=m r1=0.00048417 r0=0.000629602 x1=0.000315326 x0=0.0017084 c1=0.0117887 c0=0.00367967 enabled=True phases=3
New Line.IDLinea125_IDTramos_96 bus1=85 bus2=86 length=552.06 units=m r1=0.00048417 r0=0.000629602 x1=0.000315326 x0=0.0017084 c1=0.0117887 c0=0.00367967 enabled=True phases=3
New Line.IDLinea25_IDTramos_97 bus1=1029 bus2=87 length=17.192 units=m r1=0.00048417 r0=0.000629602 x1=0.000315326 x0=0.0017084 c1=0.0117887 c0=0.00367967 enabled=True phases=3
New Line.IDLinea25_IDTramos_98 bus1=87 bus2=90 length=224.597 units=m r1=0.00048417 r0=0.000629602 x1=0.000315326 x0=0.0017084 c1=0.0117887 c0=0.00367967 enabled=True phases=3
New Line.IDLinea126_IDTramos_99 bus1=88 bus2=89 length=52.451 units=m r1=0.000663124 r0=0.000808557 x1=0.000325502 x0=0.00171857 c1=0.0113939 c0=0.00364045 enabled=True phases=3
New Line.IDLinea26_IDTramos_100 bus1=90 bus2=91 length=1032.359 units=m r1=0.000352234 r0=0.000497666 x1=0.000305055 x0=0.00169813 c1=0.0122161 c0=0.00372013 enabled=True phases=3
New Line.IDLinea60_IDTramos_101 bus1=884 bus2=885 length=58.39 units=m r1=0.000663124 r0=0.000808557 x1=0.000325502 x0=0.00171857 c1=0.0113939 c0=0.00364045 enabled=True phases=3
New Line.IDLinea113_IDTramos_102 bus1=138 bus2=92 length=219.905 units=m r1=0.000952086 r0=0.00109752 x1=0.00033682 x0=0.00172989 c1=0.0109851 c0=0.00359782 enabled=True phases=3
New Line.IDLinea113_IDTramos_103 bus1=92 bus2=93 length=86.937 units=m r1=0.000952086 r0=0.00109752 x1=0.00033682 x0=0.00172989 c1=0.0109851 c0=0.00359782 enabled=True phases=3
New Line.IDLinea127_IDTramos_104 bus1=94 bus2=95 length=30.456 units=m r1=0.00131006 r0=0.0014555 x1=0.000346644 x0=0.00173971 c1=0.0106534 c0=0.00356164 enabled=True phases=3
New Line.IDLinea131_IDTramos_105 bus1=96 bus2=88 length=28.505 units=m r1=0.000663124 r0=0.000808557 x1=0.000325502 x0=0.00171857 c1=0.0113939 c0=0.00364045 enabled=True phases=3
New Line.IDLinea132_IDTramos_106 bus1=97 bus2=214 length=34.36 units=m r1=0.00048417 r0=0.000629602 x1=0.000315326 x0=0.0017084 c1=0.0117887 c0=0.00367967 enabled=True phases=3
New Line.IDLinea134_IDTramos_108 bus1=99 bus2=100 length=746.199 units=m r1=0.000663124 r0=0.000808557 x1=0.000325502 x0=0.00171857 c1=0.0113939 c0=0.00364045 enabled=True phases=3
New Line.IDLinea135_IDTramos_109 bus1=100 bus2=101 length=583.211 units=m r1=0.000663124 r0=0.000808557 x1=0.000325502 x0=0.00171857 c1=0.0113939 c0=0.00364045 enabled=True phases=3
New Line.IDLinea135_IDTramos_110 bus1=101 bus2=43 length=10.415 units=m r1=0.000663124 r0=0.000808557 x1=0.000325502 x0=0.00171857 c1=0.0113939 c0=0.00364045 enabled=True phases=3
New Line.IDLinea136_IDTramos_111 bus1=1322 bus2=102 length=36.42 units=m r1=0.000952086 r0=0.00109752 x1=0.00033682 x0=0.00172989 c1=0.0109851 c0=0.00359782 enabled=True phases=3
New Line.IDLinea138_IDTramos_113 bus1=48 bus2=103 length=35.069 units=m r1=0.000952086 r0=0.00109752 x1=0.00033682 x0=0.00172989 c1=0.0109851 c0=0.00359782 enabled=True phases=3
New Line.IDLinea27_IDTramos_114 bus1=91 bus2=1003 length=26.917 units=m r1=0.00048417 r0=0.000629602 x1=0.000315326 x0=0.0017084 c1=0.0117887 c0=0.00367967 enabled=True phases=3
New Line.IDLinea139_IDTramos_115 bus1=104 bus2=105 length=31.668 units=m r1=0.000952086 r0=0.00109752 x1=0.00033682 x0=0.00172989 c1=0.0109851 c0=0.00359782 enabled=True phases=3
New Line.IDLinea140_IDTramos_116 bus1=106 bus2=107 length=31.84 units=m r1=0.000952086 r0=0.00109752 x1=0.00033682 x0=0.00172989 c1=0.0109851 c0=0.00359782 enabled=True phases=3
New Line.IDLinea141_IDTramos_117 bus1=108 bus2=109 length=16.178 units=m r1=0.000952086 r0=0.00109752 x1=0.00033682 x0=0.00172989 c1=0.0109851 c0=0.00359782 enabled=True phases=3
New Line.IDLinea142_IDTramos_118 bus1=110 bus2=111 length=1.069 units=m r1=0.000352234 r0=0.000497666 x1=0.000305055 x0=0.00169813 c1=0.0122161 c0=0.00372013 enabled=True phases=3
New Line.IDLinea142_IDTramos_119 bus1=111 bus2=112 length=37.235 units=m r1=0.000352234 r0=0.000497666 x1=0.000305055 x0=0.00169813 c1=0.0122161 c0=0.00372013 enabled=True phases=3
New Line.IDLinea143_IDTramos_120 bus1=45 bus2=113 length=17.925 units=m r1=0.00048417 r0=0.000629602 x1=0.000315326 x0=0.0017084 c1=0.0117887 c0=0.00367967 enabled=True phases=3
New Line.IDLinea146_IDTramos_123 bus1=1145 bus2=115 length=12.926 units=m r1=0.000952086 r0=0.00109752 x1=0.00033682 x0=0.00172989 c1=0.0109851 c0=0.00359782 enabled=True phases=3
New Line.IDLinea146_IDTramos_124 bus1=115 bus2=116 length=41.476 units=m r1=0.000952086 r0=0.00109752 x1=0.00033682 x0=0.00172989 c1=0.0109851 c0=0.00359782 enabled=True phases=3
New Line.IDLinea147_IDTramos_125 bus1=117 bus2=118 length=10.615 units=m r1=0.000352234 r0=0.000497666 x1=0.000305055 x0=0.00169813 c1=0.0122161 c0=0.00372013 enabled=True phases=3
New Line.IDLinea148_IDTramos_126 bus1=1143 bus2=1146 length=38.666 units=m r1=0.000952086 r0=0.00109752 x1=0.00033682 x0=0.00172989 c1=0.0109851 c0=0.00359782 enabled=True phases=3
New Line.IDLinea149_IDTramos_127 bus1=1160 bus2=119 length=28.564 units=m r1=0.000952086 r0=0.00109752 x1=0.00033682 x0=0.00172989 c1=0.0109851 c0=0.00359782 enabled=True phases=3
New Line.IDLinea150_IDTramos_128 bus1=1163 bus2=120 length=67.164 units=m r1=0.000952086 r0=0.00109752 x1=0.00033682 x0=0.00172989 c1=0.0109851 c0=0.00359782 enabled=True phases=3
New Line.IDLinea151_IDTramos_129 bus1=1165 bus2=1167 length=8.713 units=m r1=0.000952086 r0=0.00109752 x1=0.00033682 x0=0.00172989 c1=0.0109851 c0=0.00359782 enabled=True phases=3
New Line.IDLinea153_IDTramos_131 bus1=121 bus2=1169 length=15.281 units=m r1=0.000952086 r0=0.00109752 x1=0.00033682 x0=0.00172989 c1=0.0109851 c0=0.00359782 enabled=True phases=3
New Line.IDLinea155_IDTramos_133 bus1=1145 bus2=1147 length=185.044 units=m r1=0.000275299 r0=0.000420731 x1=0.000297103 x0=0.00169017 c1=0.0125692 c0=0.00375209 enabled=True phases=3
New Line.IDLinea158_IDTramos_134 bus1=1173 bus2=123 length=112.788 units=m r1=0.00048417 r0=0.000629602 x1=0.000315326 x0=0.0017084 c1=0.0117887 c0=0.00367967 enabled=True phases=3
New Line.IDLinea173_IDTramos_136 bus1=173 bus2=1180 length=79.298 units=m r1=0.000952086 r0=0.00109752 x1=0.00033682 x0=0.00172989 c1=0.0109851 c0=0.00359782 enabled=True phases=3
New Line.IDLinea174_IDTramos_137 bus1=124 bus2=1184 length=60.317 units=m r1=0.000952086 r0=0.00109752 x1=0.00033682 x0=0.00172989 c1=0.0109851 c0=0.00359782 enabled=True phases=3
New Line.IDLinea175_IDTramos_138 bus1=1183 bus2=1184 length=35.543 units=m r1=0.000952086 r0=0.00109752 x1=0.00033682 x0=0.00172989 c1=0.0109851 c0=0.00359782 enabled=True phases=3
New Line.IDLinea184_IDTramos_139 bus1=1104 bus2=1110 length=16.275 units=m r1=0.000952086 r0=0.00109752 x1=0.00033682 x0=0.00172989 c1=0.0109851 c0=0.00359782 enabled=True phases=3
New Line.IDLinea186_IDTramos_141 bus1=1116 bus2=1117 length=28.644 units=m r1=0.000952086 r0=0.00109752 x1=0.00033682 x0=0.00172989 c1=0.0109851 c0=0.00359782 enabled=True phases=3
New Line.IDLinea187_IDTramos_142 bus1=1118 bus2=126 length=17.695 units=m r1=0.000952086 r0=0.00109752 x1=0.00033682 x0=0.00172989 c1=0.0109851 c0=0.00359782 enabled=True phases=3
...
