dss/import/1-Enero/Archivos_DSS/DMax_16hs_Viernes_Mes_01_2022.txt
New Load.Carga_IDSeta_2943 phases=3 bus1=X_2943.1.2.3.0 kv=0.38 kW=124.31880765413875 pf=0.919 status=variable model=1 CVRwatts=0.8 CVRvars=3 Class=1 conn=wye
New Load.Carga_IDSeta_3012 phases=3 bus1=X_3012.1.2.3.0 kv=0.38 kW=63.071602552325565 pf=0.92 status=variable model=1 CVRwatts=0.8 CVRvars=3 Class=1 conn=wye
New Load.Carga_IDSeta_2982 phases=3 bus1=X_2982.1.2.3.0 kv=0.38 kW=9.792532625560833 pf=0.942 status=variable model=1 CVRwatts=0.8 CVRvars=3 Class=1 conn=wye
New Load.Carga_IDSeta_2986 phases=3 bus1=X_2986.1.2.3.0 kv=0.38 kW=53.078983282578065 pf=0.942 status=variable model=1 CVRwatts=0.8 CVRvars=3 Class=1 conn=wye
New Load.Carga_IDSeta_205 phases=3 bus1=X_205.1.2.3.0 kv=0.38 kW=2.7201079770589183 pf=0.905 status=variable model=1 CVRwatts=0.8 CVRvars=3 Class=1 conn=wye
New Load.Carga_IDSeta_1354 phases=3 bus1=X_1354.1.2.3.0 kv=0.38 kW=4.6809852644494265 pf=0.905 status=variable model=1 CVRwatts=0.8 CVRvars=3 Class=1 conn=wye
New Load.Carga_IDSeta_2073 phases=3 bus1=X_2073.1.2.3.0 kv=0.38 kW=4.1622526122564745 pf=0.905 status=variable model=1 CVRwatts=0.8 CVRvars=3 Class=1 conn=wye
New Load.Carga_IDSeta_828 phases=3 bus1=X_828.1.2.3.0 kv=0.38 kW=11.020246433991218 pf=0.942 status=variable model=1 CVRwatts=0.8 CVRvars=3 Class=1 conn=wye
New Load.Carga_IDSeta_115 phases=3 bus1=X_115.1.2.3.0 kv=0.38 kW=21.31104682092599 pf=0.942 status=variable model=1 CVRwatts=0.8 CVRvars=3 Class=1 conn=wye
New Load.Carga_IDSeta_1245 phases=3 bus1=X_1245.1.2.3.0 kv=0.38 kW=16.738693402590684 pf=0.905 status=variable model=1 CVRwatts=0.8 CVRvars=3 Class=1 conn=wye
New Load.Carga_IDSeta_848 phases=3 bus1=X_848.1.2.3.0 kv=0.38 kW=12.170749151936331 pf=0.905 status=variable model=1 CVRwatts=0.8 CVRvars=3 Class=1 conn=wye
New Load.Carga_IDSeta_1945 phases=3 bus1=X_1945.1.2.3.0 kv=0.38 kW=59.75707920793838 pf=0.905 status=variable model=1 CVRwatts=0.8 CVRvars=3 Class=1 conn=wye
New Load.Carga_IDSeta_2970 phases=3 bus1=X_2970.1.2.3.0 kv=0.38 kW=4.945497487442544 pf=0.905 status=variable model=1 CVRwatts=0.8 CVRvars=3 Class=1 conn=wye
New Load.Carga_IDSeta_2971 phases=3 bus1=X_2971.1.2.3.0 kv=0.38 kW=43.195708350868045 pf=0.905 status=variable model=1 CVRwatts=0.8 CVRvars=3 Class=1 conn=wye
New Load.Carga_IDSeta_3002 phases=3 bus1=X_3002.1.2.3.0 kv=0.38 kW=28.859130070928533 pf=0.942 status=variable model=1 CVRwatts=0.8 CVRvars=3 Class=1 conn=wye
New Load.Carga_IDSeta_1067 phases=3 bus1=X_1067.1.2.3.0 kv=0.38 kW=2.7314948900544427 pf=0.942 status=variable model=1 CVRwatts=0.8 CVRvars=3 Class=1 conn=wye
New Load.Carga_IDSeta_821 phases=3 bus1=X_821.1.2.3.0 kv=0.38 kW=37.24371960320165 pf=0.942 status=variable model=1 CVRwatts=0.8 CVRvars=3 Class=1 conn=wye
New Load.Carga_IDSeta_210 phases=3 bus1=X_210.1.2.3.0 kv=0.38 kW=0.8349351677076848 pf=0.942 status=variable model=1 CVRwatts=0.8 CVRvars=3 Class=1 conn=wye
New Load.Carga_IDSeta_784 phases=3 bus1=X_784.1.2.3.0 kv=0.38 kW=86.48761223776326 pf=0.942 status=variable model=1 CVRwatts=0.8 CVRvars=3 Class=1 conn=wye
New Load.Carga_IDSeta_2960 phases=3 bus1=X_2960.1.2.3.0 kv=0.38 kW=1.164869225914754 pf=0.942 status=variable model=1 CVRwatts=0.8 CVRvars=3 Class=1 conn=wye
New Load.Carga_IDSeta_646 phases=3 bus1=X_646.1.2.3.0 kv=0.38 kW=0.6060013314007391 pf=0.942 status=variable model=1 CVRwatts=0.8 CVRvars=3 Class=1 conn=wye
! New Load.Carga_IDSeta_2952 phases=3 bus1=X_2952.1.2.3.0 kv=0.38 kW=0.0 pf=0.942 status=variable model=1 CVRwatts=0.8 CVRvars=3 Class=1 conn=wye
New Load.Carga_IDSeta_2959 phases=3 bus1=X_2959.1.2.3.0 kv=0.38 kW=17.529149623110268 pf=0.942 status=variable model=1 CVRwatts=0.8 CVRvars=3 Class=1 conn=wye
New Load.Carga_IDSeta_2956 phases=3 bus1=X_2956.1.2.3.0 kv=0.38 kW=1.9392042604823652 pf=0.942 status=variable model=1 CVRwatts=0.8 CVRvars=3 Class=1 conn=wye
New Load.Carga_IDSeta_2088 phases=3 bus1=X_2088.1.2.3.0 kv=0.38 kW=11.169127034677489 pf=0.905 status=variable model=1 CVRwatts=0.8 CVRvars=3 Class=1 conn=wye
New Load.Carga_IDSeta_560 phases=3 bus1=X_560.1.2.3.0 kv=0.38 kW=37.06671081650831 pf=0.905 status=variable model=1 CVRwatts=0.8 CVRvars=3 Class=1 conn=wye
New Load.Carga_IDSeta_1638 phases=3 bus1=X_1638.1.2.3.0 kv=0.38 kW=7.714308707260932 pf=0.905 status=variable model=1 CVRwatts=0.8 CVRvars=3 Class=1 conn=wye
New Load.Carga_IDSeta_2396 phases=3 bus1=X_2396.1.2.3.0 kv=0.38 kW=1.0741708276049347 pf=0.905 status=variable model=1 CVRwatts=0.8 CVRvars=3 Class=1 conn=wye
New Load.Carga_IDSeta_1951 phases=3 bus1=X_1951.1.2.3.0 kv=0.38 kW=1.221124145538531 pf=0.905 status=variable model=1 CVRwatts=0.8 CVRvars=3 Class=1 conn=wye
New Load.Carga_IDSeta_570 phases=3 bus1=X_570.1.2.3.0 kv=0.38 kW=21.648366449342948 pf=0.905 status=variable model=1 CVRwatts=0.8 CVRvars=3 Class=1 conn=wye
New Load.Carga_IDSeta_2940 phases=3 bus1=X_2940.1.2.3.0 kv=0.38 kW=84.47529308943297 pf=0.92 status=variable model=1 CVRwatts=0.8 CVRvars=3 Class=1 conn=wye
...